*Heading
** Job name: CRJ700-19 Model name: Model-1
** Generated by: Abaqus/CAE 2017
*Preprint, echo=NO, model=NO, history=NO, contact=NO
**
** PARTS
**
*Part, name=CRJ700
*Node
      1,        1541.,           0.,       -397.5
      2,        1541.,        -86.5,           0.
      3,         690.,        -86.5,           0.
      4,         690.,           0.,       -397.5
      5,        1541.,         86.5,           0.
      6,        1691.,         86.5,           0.
      7,        1691.,           0.,       -397.5
      8,        1541.,           0.,         86.5
      9,        1691.,        -86.5,           0.
     10,        1691.,           0.,         86.5
     11,         690.,         86.5,           0.
     12,         690.,           0.,         86.5
     13,        1541.,           0.,           0.
     14,        1691.,           0.,           0.
     15,         690.,           0.,           0.
     16,         554.,        -86.5,           0.
     17,         554.,           0.,           0.
     18,         554.,           0.,       -397.5
     19,         554.,           0.,         86.5
     20,         554.,         86.5,           0.
** ... 3176 like lines cut
*Element, type=S4R
  1,    1,   36,  635,  131
  2,   36,   37,  636,  635
  3,   37,   38,  637,  636
  4,   38,   39,  638,  637
  5,   39,   40,  639,  638
  6,   40,   41,  640,  639
  7,   41,   42,  641,  640
  8,   42,   43,  642,  641
  9,   43,   44,  643,  642
 10,   44,   45,  644,  643
 11,   45,   46,  645,  644
 12,   46,   47,  646,  645
 13,   47,   48,  647,  646
 14,   48,   49,  648,  647
 15,   49,   50,  649,  648
 16,   50,    2,   51,  649
 17,  131,  635,  650,  130
 18,  635,  636,  651,  650
 19,  636,  637,  652,  651
 20,  637,  638,  653,  652
** ... 3196 like lines cut
*Nset, nset=Skin
    1,    2,    3,    4,    5,    6,    7,    8,    9,   10,   11,   12,   16,   18,   19,   20
   21,   22,   23,   24,   26,   27,   28,   30,   31,   32,   34,   35,   36,   37,   38,   39
   40,   41,   42,   43,   44,   45,   46,   47,   48,   49,   50,   51,   52,   53,   54,   55
   56,   57,   58,   59,   60,   61,   62,   63,   64,   65,   66,   67,   68,   69,   70,   71
   72,   73,   74,   75,   76,   77,   78,   79,   80,   81,   82,   83,   84,   85,   86,   87
   88,   89,   90,   91,   92,   93,   94,   95,   96,   97,   98,   99,  100,  101,  102,  103
  104,  105,  106,  107,  108,  109,  110,  111,  112,  113,  114,  115,  116,  117,  118,  119
  120,  121,  122,  123,  124,  125,  126,  127,  128,  129,  130,  131,  132,  133,  134,  135
  136,  137,  138,  139,  140,  141,  142,  143,  144,  145,  146,  147,  148,  149,  150,  151
  152,  153,  154,  155,  156,  157,  158,  159,  160,  161,  162,  163,  164,  165,  166,  167
  168,  169,  170,  171,  172,  173,  174,  175,  176,  177,  178,  179,  180,  181,  182,  183
  184,  185,  186,  187,  188,  189,  190,  191,  192,  193,  194,  195,  196,  197,  198,  199
  200,  201,  202,  203,  204,  205,  206,  207,  208,  209,  210,  211,  212,  213,  214,  215
  216,  217,  218,  219,  220,  221,  222,  223,  224,  225,  226,  227,  228,  229,  230,  231
  232,  233,  234,  235,  236,  237,  238,  239,  240,  241,  242,  243,  244,  245,  246,  247
  248,  249,  250,  251,  252,  253,  254,  255,  256,  257,  258,  259,  260,  261,  262,  263
  314,  315,  316,  317,  324,  325,  326,  327,  328,  329,  330,  331,  332,  333,  334,  335
  336,  337,  338,  339,  340,  341,  342,  343,  344,  345,  346,  347,  348,  349,  350,  351
  352,  353,  354,  355,  356,  357,  358,  359,  360,  361,  362,  363,  364,  365,  366,  367
  368,  369,  370,  371,  372,  373,  374,  375,  376,  377,  378,  379,  380,  381,  382,  383
** ... 159 like lines cut
*Elset, elset=Skin
    1,    2,    3,    4,    5,    6,    7,    8,    9,   10,   11,   12,   13,   14,   15,   16
   17,   18,   19,   20,   21,   22,   23,   24,   25,   26,   27,   28,   29,   30,   31,   32
   33,   34,   35,   36,   37,   38,   39,   40,   41,   42,   43,   44,   45,   46,   47,   48
   49,   50,   51,   52,   53,   54,   55,   56,   57,   58,   59,   60,   61,   62,   63,   64
   65,   66,   67,   68,   69,   70,   71,   72,   73,   74,   75,   76,   77,   78,   79,   80
   81,   82,   83,   84,   85,   86,   87,   88,   89,   90,   91,   92,   93,   94,   95,   96
   97,   98,   99,  100,  101,  102,  103,  104,  105,  106,  107,  108,  109,  110,  111,  112
  113,  114,  115,  116,  117,  118,  119,  120,  121,  122,  123,  124,  125,  126,  127,  128
  129,  130,  131,  132,  133,  134,  135,  136,  137,  138,  139,  140,  141,  142,  143,  144
  145,  146,  147,  148,  149,  150,  151,  152,  153,  154,  155,  156,  157,  158,  159,  160
  161,  162,  163,  164,  165,  166,  167,  168,  169,  170,  171,  172,  173,  174,  175,  176
  177,  178,  179,  180,  181,  182,  183,  184,  185,  186,  187,  188,  189,  190,  191,  192
  193,  194,  195,  196,  197,  198,  199,  200,  201,  202,  203,  204,  205,  206,  207,  208
  209,  210,  211,  212,  213,  214,  215,  216,  217,  218,  219,  220,  221,  222,  223,  224
  225,  226,  227,  228,  229,  230,  231,  232,  233,  234,  235,  236,  237,  238,  239,  240
  241,  242,  243,  244,  245,  246,  247,  248,  249,  250,  251,  252,  253,  254,  255,  256
  257,  258,  259,  260,  261,  262,  263,  264,  265,  266,  267,  268,  269,  270,  271,  272
  273,  274,  275,  276,  277,  278,  279,  280,  281,  282,  283,  284,  285,  286,  287,  288
  289,  290,  291,  292,  293,  294,  295,  296,  297,  298,  299,  300,  301,  302,  303,  304
  305,  306,  307,  308,  309,  310,  311,  312,  313,  314,  315,  316,  317,  318,  319,  320
** ... 156 like lines cut
*Nset, nset=Spar
    2,    3,    5,    6,    9,   11,   13,   14,   15,   16,   17,   20,   21,   23,   25,   26
   28,   29,   31,   33,   34,   51,   52,   53,   54,   55,   56,   57,   58,   59,   60,   61
   62,   63,   64,   65,   66,   67,   68,   69,   70,   71,   72,   73,   74,   75,   76,   77
   78,   79,   80,   81,   82,   83,  147,  148,  149,  150,  151,  176,  177,  178,  179,  180
  194,  195,  196,  197,  198,  199,  200,  201,  202,  203,  204,  205,  206,  207,  208,  209
  210,  211,  212,  213,  214,  215,  216,  217,  218,  219,  220,  221,  222,  223,  224,  225
  226,  264,  265,  266,  267,  268,  269,  270,  271,  272,  273,  274,  275,  276,  277,  278
  279,  280,  281,  282,  283,  284,  285,  286,  287,  288,  289,  290,  291,  292,  293,  294
  295,  296,  297,  298,  299,  300,  301,  302,  303,  304,  305,  306,  307,  308,  309,  310
  311,  312,  313,  314,  315,  316,  317,  318,  319,  320,  321,  322,  323,  389,  390,  391
  392,  393,  394,  395,  396,  420,  421,  422,  423,  432,  433,  434,  435,  436,  437,  438
  439,  444,  445,  446,  447,  448,  449,  450,  451,  452,  453,  468,  469,  470,  471,  472
  473,  474,  475,  476,  477,  478,  479,  480,  481,  482,  483,  484,  485,  486,  487,  488
  489,  490,  491,  562,  563,  564,  565,  566,  587,  588,  589,  590,  591,  592,  593,  594
  595,  596,  597,  598,  599,  600,  605,  606, 1357, 1358, 1359, 1360, 1361, 1362, 1363, 1364
 1365, 1366, 1367, 1368, 1369, 1370, 1371, 1372, 1373, 1374, 1375, 1376, 1377, 1378, 1379, 1380
 1381, 1382, 1383, 1384, 1385, 1386, 1387, 1388, 1389, 1390, 1391, 1392, 1393, 1394, 1395, 1396
 1397, 1398, 1399, 1400, 1401, 1402, 1403, 1404, 1405, 1406, 1407, 1408, 1409, 1410, 1411, 1412
 1413, 1414, 1415, 1416, 1417, 1418, 1419, 1420, 1421, 1422, 1423, 1424, 1425, 1426, 1427, 1428
 1429, 1430, 1431, 1432, 1433, 1434, 1435, 1436, 1437, 1438, 1439, 1440, 1441, 1442, 1443, 1444
** ... 10 like lines cut
*Elset, elset=Spar
  841,  842,  843,  844,  845,  846,  847,  848,  849,  850,  851,  852,  853,  854,  855,  856
  857,  858,  859,  860,  861,  862,  863,  864,  865,  866,  867,  868,  869,  870,  871,  872
  873,  874,  875,  876,  877,  878,  879,  880,  881,  882,  883,  884,  885,  886,  887,  888
  889,  890,  891,  892,  893,  894,  895,  896,  897,  898,  899,  900,  901,  902,  903,  904
  905,  906,  907,  908,  909,  910,  911,  912,  913,  914,  915,  916,  917,  918,  919,  920
  921,  922,  923,  924,  925,  926,  927,  928,  929,  930,  931,  932,  933,  934,  935,  936
  937,  938,  939,  940,  941,  942,  943,  944,  945,  946,  947,  948,  949,  950,  951,  952
  953,  954,  955,  956,  957,  958,  959,  960,  961,  962,  963,  964,  965,  966,  967,  968
  969,  970,  971,  972,  973,  974,  975,  976,  977,  978,  979,  980,  981,  982,  983,  984
  985,  986,  987,  988,  989,  990,  991,  992,  993, 2028, 2029, 2030, 2031, 2032, 2033, 2034
 2035, 2036, 2037, 2038, 2039, 2040, 2041, 2042, 2043, 2044, 2045, 2046, 2047, 2048, 2049, 2050
 2051, 2052, 2053, 2054, 2055, 2056, 2057, 2058, 2059, 2060, 2061, 2062, 2063, 2064, 2065, 2066
 2067, 2068, 2069, 2070, 2071, 2072, 2073, 2074, 2075, 2076, 2077, 2078, 2079, 2080, 2081, 2082
 2083, 2084, 2085, 2086, 2087, 2088, 2089, 2090, 2091, 2092, 2093, 2094, 2095, 2096, 2097, 2098
 2099, 2100, 2101, 2102, 2103, 2104, 2105, 2106, 2107, 2108, 2109, 2110, 2111, 2112, 2113, 2114
 2115, 2116, 2117, 2118, 2119, 2120, 2121, 2122, 2123, 2124, 2125, 2126, 2127, 2128, 2129, 2130
 2131, 2132, 2133, 2134, 2135, 2136, 2137, 2138, 2139, 2140, 2141, 2142, 2143, 2144, 2225, 2226
 2227, 2228, 2229, 2230, 2231, 2232, 2233, 2234, 2235, 2236, 2237, 2238, 2239, 2240, 2241, 2242
 2243, 2244, 2245, 2246, 2247, 2248, 2249, 2250, 2251, 2252, 2253, 2254, 2255, 2256, 2257, 2258
 2259, 2260, 2261, 2262, 2263, 2264, 2265, 2266, 2267, 2268, 2269, 2270, 2271, 2272, 2746, 2747
** ... 6 like lines cut
** Section: Skin
*Shell Section, elset=Skin, material=Aluminium
1.54, 5
** Section: Spar
*Shell Section, elset=Spar, material=Aluminium
2.5, 5
*End Part
**  
**
** ASSEMBLY
**
*Assembly, name=Assembly
**  
*Instance, name=CRJ700-1, part=CRJ700
*End Instance
**  
*Node
      1,         149.,           0.,           0.
*Node
      2,         418.,         86.5,         86.5
*Node
      3,         554.,           0.,           0.
*Node
      4,         690.,         86.5,         86.5
*Node
      5,        1541.,           0.,           0.
*Node
      6,           0.,           0.,        -34.5
*Node
      7,   169.100006,           0.,        -34.5
*Node
      8,   338.200012,           0.,        -34.5
*Node
      9,   507.299988,           0.,        -34.5
*Node
     10,   676.400024,           0.,        -34.5
*Node
     11,        845.5,           0.,        -34.5
*Node
     12,   1014.59998,           0.,        -34.5
*Node
     13,   1183.69995,           0.,        -34.5
*Node
     14,   1352.80005,           0.,        -34.5
*Node
     15,   1521.90002,           0.,        -34.5
*Node
     16,        1691.,           0.,        -34.5
*Nset, nset=Hinge_2, instance=CRJ700-1
  16,  17,  18,  19,  20, 318, 319, 324, 325, 326, 327, 328, 329, 330, 331, 332
 333, 334, 335, 336, 337, 338, 370, 371, 372, 373, 374, 375, 376, 377, 378, 379
 380, 381, 382, 383, 384, 385, 386, 387, 388, 416, 417, 418, 419, 432, 433
*Nset, nset=Point_6, instance=CRJ700-1
  31,  32,  33,  34,  35, 567, 568, 569, 570, 571, 572, 573, 574, 575, 576, 577
 578, 579, 580, 581, 594, 595, 605, 606, 612, 613, 614, 615, 616, 617, 618, 619
 620, 621, 622, 623, 624, 625, 626, 627, 628, 629, 630, 631, 632, 633, 634
*Nset, nset=Point_7, instance=CRJ700-1
  453,  458,  479,  482,  531, 2436, 2437, 2438, 2439, 2466, 2467, 2678, 2679, 2680, 2681, 2682
 2683, 2684, 2685, 2686, 2687, 2688, 2689, 2690, 2691, 2692, 2890, 2891, 2892, 2893, 2950, 2951
 3162, 3163, 3164, 3165, 3166, 3167, 3168, 3169, 3170, 3171, 3172, 3173, 3174, 3175, 3176
*Nset, nset=Point_8, instance=CRJ700-1
  446,  465,  472,  489,  524, 2408, 2409, 2410, 2411, 2452, 2453, 2573, 2574, 2575, 2576, 2577
 2578, 2579, 2580, 2581, 2582, 2583, 2584, 2585, 2586, 2587, 2862, 2863, 2864, 2865, 2936, 2937
 3057, 3058, 3059, 3060, 3061, 3062, 3063, 3064, 3065, 3066, 3067, 3068, 3069, 3070, 3071
*Nset, nset=Point_9, instance=CRJ700-1
  394,  414,  421,  430,  435, 2117, 2118, 2119, 2120, 2121, 2122, 2123, 2124, 2125, 2126, 2127
 2128, 2129, 2130, 2131, 2166, 2167, 2168, 2169, 2378, 2379, 2388, 2389, 2390, 2391, 2783, 2784
 2785, 2786, 2787, 2788, 2789, 2790, 2791, 2792, 2793, 2794, 2795, 2796, 2797, 2906, 2907
*Nset, nset=Point_10, instance=CRJ700-1
  314,  323,  342,  366,  392, 1443, 1444, 1451, 1452, 1453, 1454, 1455, 1456, 1457, 1458, 1459
 1460, 1461, 1462, 1463, 1464, 1465, 2026, 2027, 2028, 2029, 2042, 2043, 2044, 2045, 2046, 2047
 2048, 2049, 2050, 2051, 2052, 2053, 2054, 2055, 2056, 2440, 2441, 2828, 2829, 2830, 2831
*Nset, nset=Point_11, instance=CRJ700-1
   78,  104,  221,  236,  302, 1040, 1041, 1042, 1043, 1044, 1045, 1046, 1047, 1048, 1049, 1050
 1051, 1052, 1053, 1054, 1333, 1334, 1335, 1336, 1421, 1422, 1916, 1917, 1918, 1919, 1920, 1921
 1922, 1923, 1924, 1925, 1926, 1927, 1928, 1929, 1930, 2286, 2287, 2288, 2289, 2364, 2365
*Nset, nset=Point_12, instance=CRJ700-1
   71,  111,  214,  243,  295,  935,  936,  937,  938,  939,  940,  941,  942,  943,  944,  945
  946,  947,  948,  949, 1305, 1306, 1307, 1308, 1407, 1408, 1811, 1812, 1813, 1814, 1815, 1816
 1817, 1818, 1819, 1820, 1821, 1822, 1823, 1824, 1825, 2258, 2259, 2260, 2261, 2350, 2351
*Nset, nset=Point_13, instance=CRJ700-1
   64,  118,  207,  250,  288,  830,  831,  832,  833,  834,  835,  836,  837,  838,  839,  840
  841,  842,  843,  844, 1277, 1278, 1279, 1280, 1393, 1394, 1706, 1707, 1708, 1709, 1710, 1711
 1712, 1713, 1714, 1715, 1716, 1717, 1718, 1719, 1720, 2230, 2231, 2232, 2233, 2336, 2337
*Nset, nset=Point_14, instance=CRJ700-1
   58,  124,  201,  256,  282,  740,  741,  742,  743,  744,  745,  746,  747,  748,  749,  750
  751,  752,  753,  754, 1253, 1254, 1255, 1256, 1381, 1382, 1616, 1617, 1618, 1619, 1620, 1621
 1622, 1623, 1624, 1625, 1626, 1627, 1628, 1629, 1630, 2206, 2207, 2208, 2209, 2324, 2325
*Nset, nset=Point_15, instance=CRJ700-1
   51,  131,  194,  263,  275,  635,  636,  637,  638,  639,  640,  641,  642,  643,  644,  645
  646,  647,  648,  649, 1225, 1226, 1227, 1228, 1367, 1368, 1511, 1512, 1513, 1514, 1515, 1516
 1517, 1518, 1519, 1520, 1521, 1522, 1523, 1524, 1525, 2178, 2179, 2180, 2181, 2310, 2311
*Nset, nset=Point_16, instance=CRJ700-1
   6,   7,   9,  10,  14, 152, 153, 154, 155, 156, 157, 158, 159, 160, 161, 162
 163, 164, 165, 166, 181, 182, 183, 184, 271, 272, 310, 311, 358, 359, 360, 361
 492, 493, 494, 495, 496, 497, 498, 499, 500, 501, 502, 503, 504, 505, 506
*Nset, nset=Rib_A, instance=CRJ700-1
  26,  27,  28,  29,  30, 454, 455, 456, 457, 480, 481, 532, 533, 534, 535, 536
 537, 538, 539, 540, 541, 542, 543, 544, 545, 546, 547, 548, 549, 550, 551, 552
 553, 554, 555, 556, 557, 558, 559, 560, 561, 587, 588, 601, 602, 603, 604
*Nset, nset=Rib_B, instance=CRJ700-1
  21,  22,  23,  24,  25, 397, 398, 399, 400, 401, 402, 403, 404, 405, 406, 407
 408, 409, 410, 411, 424, 425, 426, 427, 438, 439, 440, 441, 442, 443, 468, 469
 507, 508, 509, 510, 511, 512, 513, 514, 515, 516, 517, 518, 519, 520, 521
*Nset, nset=Rib_C, instance=CRJ700-1
   3,   4,  11,  12,  15,  84,  85,  86,  87,  88,  89,  90,  91,  92,  93,  94
  95,  96,  97,  98, 227, 228, 229, 230, 308, 309, 312, 313, 343, 344, 345, 346
 347, 348, 349, 350, 351, 352, 353, 354, 355, 356, 357, 362, 363, 364, 365
*Nset, nset=Rib_D, instance=CRJ700-1
   1,   2,   5,   8,  13,  36,  37,  38,  39,  40,  41,  42,  43,  44,  45,  46
  47,  48,  49,  50, 132, 133, 134, 135, 136, 137, 138, 139, 140, 141, 142, 143
 144, 145, 146, 172, 173, 174, 175, 190, 191, 192, 193, 264, 265, 273, 274
*Nset, nset=Set-33
 1,
*Nset, nset=Set-34
 3,
*Nset, nset=Set-35
 5,
*Nset, nset=Set-36
 2,
*Nset, nset=Set-37
 4,
*Nset, nset=Set-38
 6,
*Nset, nset=Set-39
 7,
*Nset, nset=Set-40
 8,
*Nset, nset=Set-41
 9,
*Nset, nset=Set-42
 10,
*Nset, nset=Set-43
 11,
*Nset, nset=Set-44
 12,
*Nset, nset=Set-45
 13,
*Nset, nset=Set-46
 14,
*Nset, nset=Set-47
 15,
*Nset, nset=Set-48
 16,
*Nset, nset=Set-49
 2,
*Nset, nset=Set-50
 4,
*Nset, nset=Set-51
 6,
*Nset, nset=Set-52
** ... 19 like lines cut
*Nset, nset=m_Set-17
 1,
*Nset, nset=m_Set-18
 3,
*Nset, nset=m_Set-19
 5,
*Nset, nset=m_Set-20
 2,
*Nset, nset=m_Set-21
 4,
*Nset, nset=m_Set-22
 6,
*Nset, nset=m_Set-23
 7,
*Nset, nset=m_Set-24
 8,
*Nset, nset=m_Set-25
 9,
*Nset, nset=m_Set-26
 10,
*Nset, nset=m_Set-27
 11,
*Nset, nset=m_Set-28
 12,
*Nset, nset=m_Set-29
 13,
*Nset, nset=m_Set-30
 14,
*Nset, nset=m_Set-31
 15,
*Nset, nset=m_Set-32
 16,
*Surface, type=NODE, name=Rib_A_CNS_, internal
Rib_A, 1.
*Surface, type=NODE, name=Hinge_2_CNS_, internal
Hinge_2, 1.
*Surface, type=NODE, name=Rib_D_CNS_, internal
Rib_D, 1.
*Surface, type=NODE, name=Rib_B_CNS_, internal
Rib_B, 1.
*Surface, type=NODE, name=Rib_C_CNS_, internal
Rib_C, 1.
*Surface, type=NODE, name=Point_6_CNS_, internal
Point_6, 1.
*Surface, type=NODE, name=Point_7_CNS_, internal
Point_7, 1.
*Surface, type=NODE, name=Point_8_CNS_, internal
Point_8, 1.
*Surface, type=NODE, name=Point_9_CNS_, internal
Point_9, 1.
*Surface, type=NODE, name=Point_10_CNS_, internal
Point_10, 1.
*Surface, type=NODE, name=Point_11_CNS_, internal
Point_11, 1.
*Surface, type=NODE, name=Point_12_CNS_, internal
Point_12, 1.
*Surface, type=NODE, name=Point_13_CNS_, internal
Point_13, 1.
*Surface, type=NODE, name=Point_14_CNS_, internal
Point_14, 1.
*Surface, type=NODE, name=Point_15_CNS_, internal
Point_15, 1.
*Surface, type=NODE, name=Point_16_CNS_, internal
Point_16, 1.
** Constraint: Constraint-1
*MPC
BEAM, Rib_A, m_Set-17
** Constraint: Constraint-2
*MPC
BEAM, Hinge_2, m_Set-18
** Constraint: Constraint-3
*MPC
BEAM, Rib_D, m_Set-19
** Constraint: Constraint-4
*MPC
BEAM, Rib_B, m_Set-20
** Constraint: Constraint-5
*MPC
BEAM, Rib_C, m_Set-21
** Constraint: Constraint-6
*MPC
BEAM, Point_6, m_Set-22
** Constraint: Constraint-7
*MPC
BEAM, Point_7, m_Set-23
** Constraint: Constraint-8
*MPC
BEAM, Point_8, m_Set-24
** Constraint: Constraint-9
*MPC
BEAM, Point_9, m_Set-25
** Constraint: Constraint-10
*MPC
BEAM, Point_10, m_Set-26
** Constraint: Constraint-11
*MPC
BEAM, Point_11, m_Set-27
** Constraint: Constraint-12
*MPC
BEAM, Point_12, m_Set-28
** Constraint: Constraint-13
*MPC
BEAM, Point_13, m_Set-29
** Constraint: Constraint-14
*MPC
BEAM, Point_14, m_Set-30
** Constraint: Constraint-15
*MPC
BEAM, Point_15, m_Set-31
** Constraint: Constraint-16
*MPC
BEAM, Point_16, m_Set-32
*End Assembly
** 
** MATERIALS
** 
*Material, name=Aluminium
*Elastic
 73.1, 0.33
** 
** BOUNDARY CONDITIONS
** 
** Name: Hinge_1 Type: Displacement/Rotation
*Boundary
Set-33, 2, 2
Set-33, 3, 3
** Name: Hinge_2 Type: Displacement/Rotation
*Boundary
Set-34, 1, 1
Set-34, 2, 2
Set-34, 3, 3
** Name: Hinge_3 Type: Displacement/Rotation
*Boundary
Set-35, 2, 2
Set-35, 3, 3
** ----------------------------------------------------------------
** 
** STEP: RotateUp
** 
*Step, name=RotateUp, nlgeom=NO
*Static
1., 1., 1e-05, 1.
** 
** BOUNDARY CONDITIONS
** 
** Name: Hinge_1 Type: Displacement/Rotation
*Boundary
Set-33, 2, 2, 6.81
** Name: Hinge_2 Type: Displacement/Rotation
*Boundary
Set-34, 4, 4, 0.4538
** Name: Hinge_3 Type: Displacement/Rotation
*Boundary
Set-35, 2, 2, 20.3
** 
** OUTPUT REQUESTS
** 
*Restart, write, frequency=0
** 
** FIELD OUTPUT: F-Output-1
** 
*Output, field
*Node Output
RF, U
*Element Output, directions=YES
MISES, 
** 
** HISTORY OUTPUT: H-Output-1
** 
*Output, history, variable=PRESELECT
*End Step
** ----------------------------------------------------------------
** 
** STEP: Jam1
** 
*Step, name=Jam1, nlgeom=NO
*Static
1., 1., 1e-05, 1.
** 
** BOUNDARY CONDITIONS
** 
** Name: Actuator_1 Type: Displacement/Rotation
*Boundary, fixed
Set-36, 3, 3
** 
** LOADS
** 
** Name: Actuator_2   Type: Concentrated force
*Cload
Set-37, 3, -37.91
** Name: Load-2   Type: Concentrated force
*Cload
Set-38, 2, -0.229
** Name: Load-3   Type: Concentrated force
*Cload
Set-39, 2, -0.459
** Name: Load-4   Type: Concentrated force
*Cload
Set-40, 2, -0.459
** Name: Load-5   Type: Concentrated force
*Cload
Set-41, 2, -0.459
** Name: Load-6   Type: Concentrated force
*Cload
Set-42, 2, -0.459
** Name: Load-7   Type: Concentrated force
*Cload
Set-43, 2, -0.459
** Name: Load-8   Type: Concentrated force
*Cload
Set-44, 2, -0.459
** Name: Load-9   Type: Concentrated force
*Cload
Set-45, 2, -0.459
** Name: Load-10   Type: Concentrated force
*Cload
Set-46, 2, -0.459
** Name: Load-11   Type: Concentrated force
*Cload
Set-47, 2, -0.459
** Name: Load-12   Type: Concentrated force
*Cload
Set-48, 2, -0.229
** 
** OUTPUT REQUESTS
** 
*Restart, write, frequency=0
** 
** FIELD OUTPUT: F-Output-1
** 
*Output, field
*Node Output
RF, U
*Element Output, directions=YES
MISES, 
** 
** HISTORY OUTPUT: H-Output-1
** 
*Output, history, variable=PRESELECT
*End Step
** ----------------------------------------------------------------
** 
** STEP: RotateDown
** 
*Step, name=RotateDown, nlgeom=NO
*Static
1., 1., 1e-05, 1.
** 
** BOUNDARY CONDITIONS
** 
** Name: Actuator_1 Type: Displacement/Rotation
*Boundary, op=NEW
** Name: Hinge_1 Type: Displacement/Rotation
*Boundary, op=NEW
Set-33, 2, 2, 6.81
Set-33, 3, 3
** Name: Hinge_2 Type: Displacement/Rotation
*Boundary, op=NEW
Set-34, 1, 1
Set-34, 2, 2
Set-34, 3, 3
Set-34, 4, 4, -0.2967
** Name: Hinge_3 Type: Displacement/Rotation
*Boundary, op=NEW
Set-35, 2, 2, 20.3
Set-35, 3, 3
** 
** LOADS
** 
** Name: Actuator_2   Type: Concentrated force
*Cload, op=NEW
** Name: Load-2   Type: Concentrated force
*Cload, op=NEW
** Name: Load-3   Type: Concentrated force
*Cload, op=NEW
** Name: Load-4   Type: Concentrated force
*Cload, op=NEW
** Name: Load-5   Type: Concentrated force
*Cload, op=NEW
** Name: Load-6   Type: Concentrated force
*Cload, op=NEW
** Name: Load-7   Type: Concentrated force
*Cload, op=NEW
** Name: Load-8   Type: Concentrated force
*Cload, op=NEW
** Name: Load-9   Type: Concentrated force
*Cload, op=NEW
** Name: Load-10   Type: Concentrated force
*Cload, op=NEW
** Name: Load-11   Type: Concentrated force
*Cload, op=NEW
** Name: Load-12   Type: Concentrated force
*Cload, op=NEW
** 
** OUTPUT REQUESTS
** 
*Restart, write, frequency=0
** 
** FIELD OUTPUT: F-Output-1
** 
*Output, field
*Node Output
RF, U
*Element Output, directions=YES
MISES, 
** 
** HISTORY OUTPUT: H-Output-1
** 
*Output, history, variable=PRESELECT
*End Step
** ----------------------------------------------------------------
** 
** STEP: Jam2
** 
*Step, name=Jam2, nlgeom=NO
*Static
1., 1., 1e-05, 1.
** 
** BOUNDARY CONDITIONS
** 
** Name: BC-5 Type: Displacement/Rotation
*Boundary, fixed
Set-49, 3, 3
** 
** LOADS
** 
** Name: Load-13   Type: Concentrated force
*Cload
Set-50, 3, 37.91
** Name: Load-14   Type: Concentrated force
*Cload
Set-51, 2, 0.153
** Name: Load-15   Type: Concentrated force
*Cload
Set-52, 2, 0.306
** Name: Load-16   Type: Concentrated force
*Cload
Set-53, 2, 0.306
** Name: Load-17   Type: Concentrated force
*Cload
Set-54, 2, 0.306
** Name: Load-18   Type: Concentrated force
*Cload
Set-55, 2, 0.306
** Name: Load-19   Type: Concentrated force
*Cload
Set-56, 2, 0.306
** Name: Load-20   Type: Concentrated force
*Cload
Set-57, 2, 0.306
** Name: Load-21   Type: Concentrated force
*Cload
Set-58, 2, 0.306
** Name: Load-22   Type: Concentrated force
*Cload
Set-59, 2, 0.306
** Name: Load-23   Type: Concentrated force
*Cload
Set-60, 2, 0.306
** Name: Load-24   Type: Concentrated force
*Cload
Set-61, 2, 0.153
** 
** OUTPUT REQUESTS
** 
*Restart, write, frequency=0
** 
** FIELD OUTPUT: F-Output-1
** 
*Output, field
*Node Output
RF, U
*Element Output, directions=YES
MISES, 
** 
** HISTORY OUTPUT: H-Output-1
** 
*Output, history, variable=PRESELECT
*End Step
